Version 4
SHEET 1 880 680
WIRE 128 272 80 272
WIRE 288 288 240 288
WIRE 128 304 112 304
WIRE -32 320 -48 320
WIRE 112 320 112 304
WIRE 112 320 80 320
WIRE 288 336 288 288
WIRE 336 336 288 336
WIRE -48 368 -48 320
WIRE 16 368 -48 368
WIRE 128 384 80 384
WIRE 288 400 288 336
WIRE 288 400 240 400
WIRE 16 416 16 368
WIRE 16 416 0 416
WIRE 128 416 16 416
FLAG 80 272 A
IOPIN 80 272 In
FLAG 80 384 B
IOPIN 80 384 In
FLAG 0 416 C
IOPIN 0 416 In
FLAG 336 336 Out
IOPIN 336 336 Out
SYMBOL trans_gate 176 288 R0
WINDOW 0 8 -24 Bottom 2
SYMATTR InstName X1
SYMBOL trans_gate 176 400 R0
WINDOW 0 8 -24 Bottom 2
SYMATTR InstName X2
SYMBOL inverter 16 320 R0
SYMATTR InstName X3
