Version 4
SHEET 1 880 680
WIRE 160 -96 96 -96
WIRE 96 -48 96 -96
WIRE 160 48 160 -96
WIRE 96 80 96 64
WIRE 96 80 32 80
WIRE 32 96 32 80
WIRE 32 96 0 96
WIRE 144 96 80 96
WIRE 304 96 240 96
WIRE 32 144 32 96
WIRE 128 144 32 144
WIRE 80 176 80 96
WIRE 80 176 16 176
WIRE 304 176 304 96
WIRE 352 176 304 176
WIRE 128 208 128 144
WIRE 160 208 128 208
WIRE 480 240 480 224
WIRE 80 256 80 176
WIRE 144 256 80 256
WIRE 304 256 304 176
WIRE 304 256 240 256
WIRE 192 352 192 256
FLAG 352 176 Out
IOPIN 352 176 Out
FLAG 192 352 0
FLAG 192 96 VDD
FLAG 16 176 In
IOPIN 16 176 In
FLAG 0 96 S
IOPIN 0 96 In
SYMBOL inverter 96 16 R270
SYMATTR InstName Inv
SYMBOL nmos4 240 208 R90
SYMATTR InstName M1
SYMBOL pmos4 240 48 R90
SYMATTR InstName M2
